multiconductor/addons/ieee/ieee9500.dss
! OpenDSS script generated from multiconductor network
Clear

New Circuit.ieee9500 basekv=115.0 pu=1.000000 angle=0.00 frequency=60.0 phases=3 Mvasc3=3.94781e+07 Mvasc1=1.31594e+07
~ bus1=sourcebus.1.2.3

! Line codes
New LineCode.seriescomp_0 nphases=3 units=km r1=0 x1=14.798307 r0=0 x0=14.798307 c1=0 c0=0 NormAmps=1000
New LineCode.spacing_1__ph1 nphases=1 units=km Rmatrix=[ 1.6833333 ] Xmatrix=[ 0.58333333 ] Cmatrix=[ 0 ] NormAmps=200
New LineCode.spacing_2__ph1 nphases=1 units=km Rmatrix=[ 2.62 ] Xmatrix=[ 0.58333333 ] Cmatrix=[ 0 ] NormAmps=150
New LineCode.spacing_3__ph2 nphases=1 units=km Rmatrix=[ 1.6833333 ] Xmatrix=[ 0.58333333 ] Cmatrix=[ 0 ] NormAmps=200
New LineCode.spacing_4 nphases=3 units=km r1=0.53 x1=0.4 r0=1.59 x0=1.2 c1=0 c0=0 NormAmps=300
New LineCode.spacing_5__ph2 nphases=1 units=km Rmatrix=[ 2.62 ] Xmatrix=[ 0.58333333 ] Cmatrix=[ 0 ] NormAmps=150
New LineCode.spacing_6 nphases=3 units=km r1=0.16 x1=0.4 r0=0.48 x0=1.2 c1=0 c0=0 NormAmps=630
New LineCode.spacing_7__ph1 nphases=1 units=km Rmatrix=[ 1.6833333 ] Xmatrix=[ 0.58333333 ] Cmatrix=[ 0 ] NormAmps=200
New LineCode.spacing_8__ph2 nphases=1 units=km Rmatrix=[ 2.62 ] Xmatrix=[ 0.58333333 ] Cmatrix=[ 0 ] NormAmps=150
New LineCode.spacing_9 nphases=3 units=km r1=0.16 x1=0.4 r0=0.48 x0=1.2 c1=0 c0=0 NormAmps=630
New LineCode.spacing_10__ph3 nphases=1 units=km Rmatrix=[ 1.6833333 ] Xmatrix=[ 0.58333333 ] Cmatrix=[ 0 ] NormAmps=200
New LineCode.spacing_11__ph3 nphases=1 units=km Rmatrix=[ 2.62 ] Xmatrix=[ 0.58333333 ] Cmatrix=[ 0 ] NormAmps=150
New LineCode.spacing_12__ph3 nphases=1 units=km Rmatrix=[ 2.62 ] Xmatrix=[ 0.58333333 ] Cmatrix=[ 0 ] NormAmps=150
New LineCode.spacing_13__ph1 nphases=1 units=km Rmatrix=[ 1.005 ] Xmatrix=[ 0.33333333 ] Cmatrix=[ 0 ] NormAmps=200
New LineCode.spacing_14__ph3 nphases=1 units=km Rmatrix=[ 1.6833333 ] Xmatrix=[ 0.58333333 ] Cmatrix=[ 0 ] NormAmps=200
New LineCode.spacing_15__ph3 nphases=1 units=km Rmatrix=[ 2.5466667 ] Xmatrix=[ 0.58333333 ] Cmatrix=[ 0 ] NormAmps=150
New LineCode.spacing_16__ph2 nphases=1 units=km Rmatrix=[ 2.5466667 ] Xmatrix=[ 0.58333333 ] Cmatrix=[ 0 ] NormAmps=150
New LineCode.spacing_17__ph1 nphases=1 units=km Rmatrix=[ 2.5466667 ] Xmatrix=[ 0.58333333 ] Cmatrix=[ 0 ] NormAmps=150
New LineCode.spacing_18 nphases=3 units=km r1=1.572 x1=0.4 r0=4.716 x0=1.2 c1=0 c0=0 NormAmps=150
New LineCode.spacing_19 nphases=3 units=km r1=1.572 x1=0.4 r0=4.716 x0=1.2 c1=0 c0=0 NormAmps=150
New LineCode.spacing_20 nphases=3 units=km r1=1.01 x1=0.4 r0=3.03 x0=1.2 c1=0 c0=0 NormAmps=200
New LineCode.spacing_21__ph1 nphases=1 units=km Rmatrix=[ 2.62 ] Xmatrix=[ 0.58333333 ] Cmatrix=[ 0 ] NormAmps=150
New LineCode.spacing_22__ph1 nphases=1 units=km Rmatrix=[ 2.5466667 ] Xmatrix=[ 0.58333333 ] Cmatrix=[ 0 ] NormAmps=150
New LineCode.spacing_23__ph2 nphases=1 units=km Rmatrix=[ 2.62 ] Xmatrix=[ 0.58333333 ] Cmatrix=[ 0 ] NormAmps=150
New LineCode.spacing_24 nphases=3 units=km r1=1.528 x1=0.4 r0=4.584 x0=1.2 c1=0 c0=0 NormAmps=150
New LineCode.spacing_25__ph1 nphases=1 units=km Rmatrix=[ 1.6833333 ] Xmatrix=[ 0.58333333 ] Cmatrix=[ 0 ] NormAmps=200
New LineCode.spacing_26__ph3 nphases=1 units=km Rmatrix=[ 1.6833333 ] Xmatrix=[ 0.58333333 ] Cmatrix=[ 0 ] NormAmps=200
New LineCode.spacing_27__ph3 nphases=1 units=km Rmatrix=[ 2.62 ] Xmatrix=[ 0.58333333 ] Cmatrix=[ 0 ] NormAmps=150
New LineCode.spacing_28__ph1 nphases=1 units=km Rmatrix=[ 2.62 ] Xmatrix=[ 0.58333333 ] Cmatrix=[ 0 ] NormAmps=150
New LineCode.spacing_29__ph3 nphases=1 units=km Rmatrix=[ 1.005 ] Xmatrix=[ 0.33333333 ] Cmatrix=[ 0 ] NormAmps=200
New LineCode.spacing_30 nphases=3 units=km r1=0.603 x1=0.25 r0=1.809 x0=0.75 c1=0 c0=0 NormAmps=200
New LineCode.spacing_31__ph2 nphases=1 units=km Rmatrix=[ 1.6833333 ] Xmatrix=[ 0.58333333 ] Cmatrix=[ 0 ] NormAmps=200
New LineCode.spacing_32__ph3 nphases=1 units=km Rmatrix=[ 2.62 ] Xmatrix=[ 0.58333333 ] Cmatrix=[ 0 ] NormAmps=150
New LineCode.spacing_33 nphases=3 units=km r1=1.572 x1=0.4 r0=4.716 x0=1.2 c1=0 c0=0 NormAmps=150
New LineCode.spacing_34__ph2 nphases=1 units=km Rmatrix=[ 2.62 ] Xmatrix=[ 0.58333333 ] Cmatrix=[ 0 ] NormAmps=150
New LineCode.spacing_35__ph1 nphases=1 units=km Rmatrix=[ 2.62 ] Xmatrix=[ 0.58333333 ] Cmatrix=[ 0 ] NormAmps=150
New LineCode.spacing_36__ph1 nphases=1 units=km Rmatrix=[ 1.6833333 ] Xmatrix=[ 0.58333333 ] Cmatrix=[ 0 ] NormAmps=200
New LineCode.spacing_37__ph3 nphases=1 units=km Rmatrix=[ 2.5466667 ] Xmatrix=[ 0.58333333 ] Cmatrix=[ 0 ] NormAmps=150
New LineCode.spacing_38__ph1 nphases=1 units=km Rmatrix=[ 2.62 ] Xmatrix=[ 0.58333333 ] Cmatrix=[ 0 ] NormAmps=150
New LineCode.spacing_39__ph1 nphases=1 units=km Rmatrix=[ 2.62 ] Xmatrix=[ 0.58333333 ] Cmatrix=[ 0 ] NormAmps=150
New LineCode.spacing_40__ph2 nphases=1 units=km Rmatrix=[ 1.005 ] Xmatrix=[ 0.33333333 ] Cmatrix=[ 0 ] NormAmps=200
New LineCode.spacing_41__ph3 nphases=1 units=km Rmatrix=[ 1.6833333 ] Xmatrix=[ 0.58333333 ] Cmatrix=[ 0 ] NormAmps=200
New LineCode.spacing_42__ph2 nphases=1 units=km Rmatrix=[ 1.6833333 ] Xmatrix=[ 0.58333333 ] Cmatrix=[ 0 ] NormAmps=200
New LineCode.spacing_43__ph1 nphases=1 units=km Rmatrix=[ 1.6833333 ] Xmatrix=[ 0.58333333 ] Cmatrix=[ 0 ] NormAmps=200
New LineCode.spacing_44 nphases=3 units=km r1=0.176 x1=0.4 r0=0.528 x0=1.2 c1=0 c0=0 NormAmps=526
New LineCode.spacing_45__ph3 nphases=1 units=km Rmatrix=[ 0.88333333 ] Xmatrix=[ 0.58333333 ] Cmatrix=[ 0 ] NormAmps=300
New LineCode.spacing_46__ph13 nphases=2 units=km Rmatrix=[ 1.6833333 | 0.67333333 1.6833333 ] Xmatrix=[ 0.66666667 | 0.26666667 0.66666667 ] Cmatrix=[ 0 | 0 0 ] NormAmps=200
New LineCode.spacing_47__ph1 nphases=1 units=km Rmatrix=[ 1.75 ] Xmatrix=[ 0.58333333 ] Cmatrix=[ 0 ] NormAmps=155
New LineCode.spacing_48__ph2 nphases=1 units=km Rmatrix=[ 2.62 ] Xmatrix=[ 0.58333333 ] Cmatrix=[ 0 ] NormAmps=150
New LineCode.spacing_49__ph2 nphases=1 units=km Rmatrix=[ 2.62 ] Xmatrix=[ 0.58333333 ] Cmatrix=[ 0 ] NormAmps=150
New LineCode.spacing_50__ph1 nphases=1 units=km Rmatrix=[ 1.6833333 ] Xmatrix=[ 0.58333333 ] Cmatrix=[ 0 ] NormAmps=200
New LineCode.spacing_51__ph2 nphases=1 units=km Rmatrix=[ 2.5466667 ] Xmatrix=[ 0.58333333 ] Cmatrix=[ 0 ] NormAmps=150
New LineCode.spacing_52__ph2 nphases=1 units=km Rmatrix=[ 1.6833333 ] Xmatrix=[ 0.58333333 ] Cmatrix=[ 0 ] NormAmps=200
New LineCode.spacing_53__ph1 nphases=1 units=km Rmatrix=[ 2.62 ] Xmatrix=[ 0.58333333 ] Cmatrix=[ 0 ] NormAmps=150
New LineCode.spacing_54 nphases=3 units=km r1=0.53 x1=0.4 r0=1.59 x0=1.2 c1=0 c0=0 NormAmps=300
New LineCode.spacing_55__ph1 nphases=1 units=km Rmatrix=[ 2.62 ] Xmatrix=[ 0.58333333 ] Cmatrix=[ 0 ] NormAmps=150
New LineCode.spacing_56 nphases=3 units=km r1=1.528 x1=0.4 r0=4.584 x0=1.2 c1=0 c0=0 NormAmps=150
New LineCode.spacing_57__ph2 nphases=1 units=km Rmatrix=[ 2.62 ] Xmatrix=[ 0.58333333 ] Cmatrix=[ 0 ] NormAmps=150
New LineCode.spacing_58__ph1 nphases=1 units=km Rmatrix=[ 2.5466667 ] Xmatrix=[ 0.58333333 ] Cmatrix=[ 0 ] NormAmps=150
New LineCode.spacing_59__ph3 nphases=1 units=km Rmatrix=[ 4.05 ] Xmatrix=[ 0.58333333 ] Cmatrix=[ 0 ] NormAmps=115
New LineCode.spacing_60 nphases=3 units=km r1=1.572 x1=0.4 r0=4.716 x0=1.2 c1=0 c0=0 NormAmps=150
New LineCode.spacing_61__ph1 nphases=1 units=km Rmatrix=[ 2.62 ] Xmatrix=[ 0.58333333 ] Cmatrix=[ 0 ] NormAmps=150
New LineCode.spacing_62__ph2 nphases=1 units=km Rmatrix=[ 1.6833333 ] Xmatrix=[ 0.58333333 ] Cmatrix=[ 0 ] NormAmps=200
New LineCode.spacing_63__ph3 nphases=1 units=km Rmatrix=[ 2.5466667 ] Xmatrix=[ 0.58333333 ] Cmatrix=[ 0 ] NormAmps=150
New LineCode.spacing_64__ph1 nphases=1 units=km Rmatrix=[ 1.6833333 ] Xmatrix=[ 0.58333333 ] Cmatrix=[ 0 ] NormAmps=200
New LineCode.spacing_65__ph3 nphases=1 units=km Rmatrix=[ 2.5466667 ] Xmatrix=[ 0.58333333 ] Cmatrix=[ 0 ] NormAmps=150
New LineCode.spacing_66 nphases=3 units=km r1=1.01 x1=0.4 r0=3.03 x0=1.2 c1=0 c0=0 NormAmps=200
New LineCode.spacing_67 nphases=3 units=km r1=0.53 x1=0.4 r0=1.59 x0=1.2 c1=0 c0=0 NormAmps=300
New LineCode.spacing_68 nphases=3 units=km r1=0.16 x1=0.4 r0=0.48 x0=1.2 c1=0 c0=0 NormAmps=630
New LineCode.spacing_69__ph2 nphases=1 units=km Rmatrix=[ 2.62 ] Xmatrix=[ 0.58333333 ] Cmatrix=[ 0 ] NormAmps=150
New LineCode.spacing_70__ph3 nphases=1 units=km Rmatrix=[ 2.62 ] Xmatrix=[ 0.58333333 ] Cmatrix=[ 0 ] NormAmps=150
New LineCode.spacing_71__ph1 nphases=1 units=km Rmatrix=[ 2.5466667 ] Xmatrix=[ 0.58333333 ] Cmatrix=[ 0 ] NormAmps=150
New LineCode.spacing_72__ph3 nphases=1 units=km Rmatrix=[ 1.6833333 ] Xmatrix=[ 0.58333333 ] Cmatrix=[ 0 ] NormAmps=200
New LineCode.spacing_73__ph3 nphases=1 units=km Rmatrix=[ 2.62 ] Xmatrix=[ 0.58333333 ] Cmatrix=[ 0 ] NormAmps=150
New LineCode.spacing_74__ph3 nphases=1 units=km Rmatrix=[ 2.62 ] Xmatrix=[ 0.58333333 ] Cmatrix=[ 0 ] NormAmps=150
New LineCode.spacing_75__ph1 nphases=1 units=km Rmatrix=[ 0.88333333 ] Xmatrix=[ 0.58333333 ] Cmatrix=[ 0 ] NormAmps=300
New LineCode.spacing_76__ph2 nphases=1 units=km Rmatrix=[ 2.5466667 ] Xmatrix=[ 0.58333333 ] Cmatrix=[ 0 ] NormAmps=150
New LineCode.spacing_77__ph2 nphases=1 units=km Rmatrix=[ 2.5466667 ] Xmatrix=[ 0.58333333 ] Cmatrix=[ 0 ] NormAmps=150
New LineCode.instance_78 nphases=3 units=km r1=1e-06 x1=1e-05 r0=1e-06 x0=1e-05 c1=0 c0=0 NormAmps=1000
New LineCode.instance_79 nphases=3 units=km r1=0.001 x1=0.001 r0=0.001 x0=0.001 c1=0 c0=0 NormAmps=1000
New LineCode.linecode_80__ph1 nphases=1 units=km Rmatrix=[ 1.0356233 ] Xmatrix=[ 1.0356233 ] Cmatrix=[ 0 ] NormAmps=1000
New LineCode.linecode_81__ph3 nphases=1 units=km Rmatrix=[ 1.0356233 ] Xmatrix=[ 1.0356233 ] Cmatrix=[ 0 ] NormAmps=1000
New LineCode.linecode_82__ph2 nphases=1 units=km Rmatrix=[ 1.0356233 ] Xmatrix=[ 1.0356233 ] Cmatrix=[ 0 ] NormAmps=1000
New LineCode.linecode_83__ph3 nphases=1 units=km Rmatrix=[ 1.0356233 ] Xmatrix=[ 1.0356233 ] Cmatrix=[ 0 ] NormAmps=1000
New LineCode.linecode_84__ph2 nphases=1 units=km Rmatrix=[ 1.0356233 ] Xmatrix=[ 1.0356233 ] Cmatrix=[ 0 ] NormAmps=1000
New LineCode.linecode_85__ph1 nphases=1 units=km Rmatrix=[ 1.0356233 ] Xmatrix=[ 1.0356233 ] Cmatrix=[ 0 ] NormAmps=1000
New LineCode.linecode_86__ph3 nphases=1 units=km Rmatrix=[ 1.0356233 ] Xmatrix=[ 1.0356233 ] Cmatrix=[ 0 ] NormAmps=1000
New LineCode.linecode_87__ph2 nphases=1 units=km Rmatrix=[ 1.0356233 ] Xmatrix=[ 1.0356233 ] Cmatrix=[ 0 ] NormAmps=1000
New LineCode.linecode_88__ph1 nphases=1 units=km Rmatrix=[ 1.0356233 ] Xmatrix=[ 1.0356233 ] Cmatrix=[ 0 ] NormAmps=1000
New LineCode.triplex_89__ph12 nphases=2 units=km Rmatrix=[ 1 | 0.4 1 ] Xmatrix=[ 0.33333333 | 0.13333333 0.33333333 ] Cmatrix=[ 0 | 0 0 ] NormAmps=200
New LineCode.triplex_90__ph12 nphases=2 units=km Rmatrix=[ 1 | 0.4 1 ] Xmatrix=[ 0.33333333 | 0.13333333 0.33333333 ] Cmatrix=[ 0 | 0 0 ] NormAmps=200

! Lines
New Line.hvmv_sub_hsb phases=3 Bus1=sourcebus.1.2.3 Bus2=hvmv115_hsb1.1.2.3 LineCode=seriescomp_0 Length=1 units=km
New Line.ln6320335-1 phases=1 Bus1=m1047671.1 Bus2=l2710511.1 LineCode=spacing_1__ph1 Length=0.0608667 units=km
New Line.ln6392977-2 phases=1 Bus1=m1027080.1 Bus2=l3215340.1 LineCode=spacing_2__ph1 Length=0.0661486 units=km
New Line.ln6392977-1 phases=1 Bus1=l3215340.1 Bus2=m1027087.1 LineCode=spacing_2__ph1 Length=0.0347326 units=km
New Line.ln5835159-1 phases=1 Bus1=m1069574.2 Bus2=l2710530.2 LineCode=spacing_3__ph2 Length=0.0502441 units=km
New Line.ln5653456-1 phases=1 Bus1=m1047755.1 Bus2=l3066812.1 LineCode=spacing_2__ph1 Length=0.0158286 units=km
New Line.ln5683825-1 phases=1 Bus1=m1026848.1 Bus2=l2935557.1 LineCode=spacing_1__ph1 Length=0.0600072 units=km
New Line.ln5621848-2 phases=1 Bus1=p901927.2 Bus2=n1136353.2 LineCode=spacing_3__ph2 Length=0.0163388 units=km
New Line.ln1047pvfrm-2 phases=3 Bus1=m1047pv-3.1.2.3 Bus2=m1047pv-2.1.2.3 LineCode=spacing_4 Length=0.105893 units=km
New Line.ln6422014-1 phases=3 Bus1=m1108400.1.2.3 Bus2=m1108404.1.2.3 LineCode=spacing_4 Length=0.0837481 units=km
New Line.ln1047pvfrm-1 phases=3 Bus1=m1047pv-1.1.2.3 Bus2=m1047520.1.2.3 LineCode=spacing_4 Length=0.120581 units=km
New Line.ln5833720-1 phases=1 Bus1=m1069582.2 Bus2=l2933165.2 LineCode=spacing_5__ph2 Length=0.0630753 units=km
New Line.ln5739188-1 phases=3 Bus1=l2726973.1.2.3 Bus2=m1047485.1.2.3 LineCode=spacing_4 Length=0.0846372 units=km
New Line.ln6291242-1 phases=3 Bus1=m1209797.1.2.3 Bus2=m1209791.1.2.3 LineCode=spacing_6 Length=0.0665997 units=km
New Line.ln5593228-1 phases=1 Bus1=m1027019.2 Bus2=l2785522.2 LineCode=spacing_3__ph2 Length=0.0603906 units=km
New Line.ln2001313-1 phases=1 Bus1=m2001312.1 Bus2=m2001313.1 LineCode=spacing_7__ph1 Length=0.0482309 units=km
New Line.ln6137086-2 phases=1 Bus1=m1047812.2 Bus2=m4350438.2 LineCode=spacing_8__ph2 Length=0.0218237 units=km
New Line.ln5742828-1 phases=3 Bus1=m1209817.1.2.3 Bus2=l2801909.1.2.3 LineCode=spacing_9 Length=0.0252524 units=km
New Line.ln2001215-1 phases=1 Bus1=m2001214.3 Bus2=m2001215.3 LineCode=spacing_10__ph3 Length=0.0482309 units=km
New Line.ln5833622-1 phases=1 Bus1=m1069174.3 Bus2=l3216347.3 LineCode=spacing_11__ph3 Length=0.073675 units=km
New Line.ln5742828-2 phases=3 Bus1=l2801909.1.2.3 Bus2=m1209814.1.2.3 LineCode=spacing_9 Length=0.0692728 units=km
New Line.ln6106583-2 phases=1 Bus1=m1010017.1 Bus2=l2858175.1 LineCode=spacing_1__ph1 Length=0.0854178 units=km
New Line.ln6106583-3 phases=1 Bus1=l2858175.1 Bus2=m1027110.1 LineCode=spacing_1__ph1 Length=0.0046229 units=km
New Line.ln6439600-1 phases=1 Bus1=m1026658.1 Bus2=l3172805.1 LineCode=spacing_1__ph1 Length=0.10668 units=km
New Line.ln6106583-4 phases=1 Bus1=m1027121.1 Bus2=n1134469.1 LineCode=spacing_1__ph1 Length=0.00874624 units=km
New Line.ln6106583-5 phases=1 Bus1=n1134469.1 Bus2=m1010017.1 LineCode=spacing_1__ph1 Length=0.320626 units=km
New Line.ln5951197-2 phases=1 Bus1=m3037537.2 Bus2=l3231269.2 LineCode=spacing_3__ph2 Length=0.170688 units=km
New Line.ln5805761-1 phases=3 Bus1=l3048965.1.2.3 Bus2=m1142843.1.2.3 LineCode=spacing_6 Length=0.0513405 units=km
New Line.ln5865230-1 phases=3 Bus1=m1089177.1.2.3 Bus2=l2822863.1.2.3 LineCode=spacing_4 Length=0.133884 units=km
New Line.ln5563852-1 phases=1 Bus1=m1108529.3 Bus2=p829796.3 LineCode=spacing_12__ph3 Length=0.00609783 units=km
New Line.ln8979370-1 phases=1 Bus1=m1069248.1 Bus2=l2915534.1 LineCode=spacing_13__ph1 Length=0.250912 units=km
New Line.ln8979370-2 phases=1 Bus1=l2915534.1 Bus2=193-48013.1 LineCode=spacing_13__ph1 Length=0.169249 units=km
New Line.ln6047580-2 phases=3 Bus1=m1026681.1.2.3 Bus2=l3048221.1.2.3 LineCode=spacing_6 Length=0.0644948 units=km
New Line.ln5746705-1 phases=1 Bus1=m1142843.1 Bus2=p829976.1 LineCode=spacing_2__ph1 Length=0.00988619 units=km
New Line.ln6109190-1 phases=1 Bus1=l2879794.1 Bus2=m1142811.1 LineCode=spacing_2__ph1 Length=0.033756 units=km
New Line.ln5804789-1 phases=1 Bus1=m1089165.3 Bus2=l2748128.3 LineCode=spacing_12__ph3 Length=0.0430277 units=km
New Line.ln6048632-1 phases=1 Bus1=l2936275.2 Bus2=l3179674.2 LineCode=spacing_5__ph2 Length=0.0907917 units=km
New Line.ln6900591-29 phases=1 Bus1=n1140528.1 Bus2=l3649297.1 LineCode=spacing_1__ph1 Length=0.0492603 units=km
New Line.ln6505949-1 phases=3 Bus1=l2691952.1.2.3 Bus2=m3036170.1.2.3 LineCode=spacing_6 Length=0.00217993 units=km
New Line.ln6290213-1 phases=1 Bus1=l3197638.1 Bus2=m1026849.1 LineCode=spacing_1__ph1 Length=0.0612264 units=km
New Line.ln6900591-28 phases=1 Bus1=p1123251.1 Bus2=n1140528.1 LineCode=spacing_1__ph1 Length=0.00631942 units=km
New Line.ln6900591-27 phases=1 Bus1=m3772794.1 Bus2=l3649300.1 LineCode=spacing_1__ph1 Length=0.0609652 units=km
New Line.ln6900591-26 phases=1 Bus1=l3649299.1 Bus2=m3772794.1 LineCode=spacing_1__ph1 Length=0.00387888 units=km
New Line.ln5565091-1 phases=1 Bus1=m1069481.3 Bus2=p827507.3 LineCode=spacing_14__ph3 Length=0.00980542 units=km
New Line.ln6900591-22 phases=1 Bus1=l3649304.1 Bus2=l3649305.1 LineCode=spacing_1__ph1 Length=0.0670877 units=km
New Line.ln6018241-1 phases=1 Bus1=l2936211.3 Bus2=l2842329.3 LineCode=spacing_15__ph3 Length=0.0808372 units=km
New Line.ln2000404-1 phases=1 Bus1=m2000403.1 Bus2=m2000404.1 LineCode=spacing_7__ph1 Length=0.0482309 units=km
New Line.ln6900591-20 phases=1 Bus1=l3649302.1 Bus2=l3649304.1 LineCode=spacing_1__ph1 Length=0.0627605 units=km
New Line.ln5472346-1 phases=1 Bus1=l3160100.2 Bus2=l3085390.2 LineCode=spacing_3__ph2 Length=0.0668698 units=km
New Line.ln5835124-1 phases=1 Bus1=m1069731.2 Bus2=l2710504.2 LineCode=spacing_5__ph2 Length=0.0556635 units=km
New Line.ln6411382-1 phases=1 Bus1=m1089143.1 Bus2=m1089144.1 LineCode=spacing_1__ph1 Length=0.025712 units=km
New Line.ln5654485-1 phases=1 Bus1=l2711234.2 Bus2=l3198355.2 LineCode=spacing_16__ph2 Length=0.118838 units=km
New Line.ln5532739-1 phases=1 Bus1=l3254207.1 Bus2=m1069390.1 LineCode=spacing_2__ph1 Length=0.0708898 units=km
New Line.ln5621826-1 phases=1 Bus1=m1026942.1 Bus2=l3270814.1 LineCode=spacing_2__ph1 Length=0.0304803 units=km
New Line.ln5562921-1 phases=1 Bus1=m1089155.3 Bus2=m1089158.3 LineCode=spacing_11__ph3 Length=0.10183 units=km
New Line.ln5744361-1 phases=1 Bus1=l2860485.2 Bus2=l2860506.2 LineCode=spacing_3__ph2 Length=0.208371 units=km
New Line.ln6351417-1 phases=1 Bus1=m1126005.1 Bus2=l3011229.1 LineCode=spacing_1__ph1 Length=0.0805233 units=km
New Line.ln6900591-14 phases=1 Bus1=l3649301.1 Bus2=l3649302.1 LineCode=spacing_1__ph1 Length=0.0630604 units=km
New Line.ln6900591-12 phases=1 Bus1=l3649300.1 Bus2=l3649301.1 LineCode=spacing_1__ph1 Length=0.0611746 units=km
New Line.ln2000600-1 phases=3 Bus1=m2000500.1.2.3 Bus2=m2000600.1.2.3 LineCode=spacing_4 Length=0.148451 units=km
New Line.ln5987964-1 phases=1 Bus1=m1108278.2 Bus2=l3179699.2 LineCode=spacing_3__ph2 Length=0.115139 units=km
New Line.ln5955074-3 phases=1 Bus1=p827521.2 Bus2=n1139546.2 LineCode=spacing_5__ph2 Length=0.00914065 units=km
New Line.ln5955074-2 phases=1 Bus1=d5955074-2_int.2 Bus2=l2970842.2 LineCode=spacing_5__ph2 Length=0.0855686 units=km
New Line.ln6170199-2 phases=1 Bus1=m3037449.3 Bus2=m1108375.3 LineCode=spacing_14__ph3 Length=0.0183703 units=km
New Line.ln5835146-1 phases=1 Bus1=l3104131.1 Bus2=m1026377.1 LineCode=spacing_17__ph1 Length=0.0611185 units=km
New Line.ln6320322-1 phases=1 Bus1=l2879055.3 Bus2=l2973144.3 LineCode=spacing_12__ph3 Length=0.0909234 units=km
New Line.ln6078773-1 phases=1 Bus1=m1142798.2 Bus2=m1142801.2 LineCode=spacing_3__ph2 Length=0.0794382 units=km
New Line.ln6380810-1 phases=3 Bus1=m1047732.1.2.3 Bus2=m1047737.1.2.3 LineCode=spacing_18 Length=0.0866979 units=km
New Line.ln6268990-2 phases=1 Bus1=m1047613.3 Bus2=m1047612.3 LineCode=spacing_14__ph3 Length=0.000384048 units=km
New Line.ln5774458-1 phases=3 Bus1=m1026907.1.2.3 Bus2=m1026915.1.2.3 LineCode=spacing_19 Length=0.0740234 units=km
New Line.ln6268990-4 phases=1 Bus1=n1136995.3 Bus2=m1047613.3 LineCode=spacing_14__ph3 Length=0.0126382 units=km
New Line.ln5502544-1 phases=1 Bus1=l2954355.1 Bus2=m1026665.1 LineCode=spacing_2__ph1 Length=0.0238095 units=km
New Line.ln6318740-3 phases=1 Bus1=n1137998.3 Bus2=m1026895.3 LineCode=spacing_14__ph3 Length=0.0238305 units=km
New Line.ln6318740-2 phases=1 Bus1=p895409.3 Bus2=n1137998.3 LineCode=spacing_14__ph3 Length=0.0120753 units=km
New Line.ln6268990-3 phases=1 Bus1=m1047615.3 Bus2=n1136995.3 LineCode=spacing_14__ph3 Length=0.0134798 units=km
New Line.ln6167816-1 phases=1 Bus1=m1047623.1 Bus2=l3008279.1 LineCode=spacing_2__ph1 Length=0.0591797 units=km
New Line.ln6200527-1 phases=3 Bus1=l2730163.1.2.3 Bus2=l2992624.1.2.3 LineCode=spacing_6 Length=0.0845323 units=km
New Line.ln5714046-1 phases=1 Bus1=m1047780.2 Bus2=l3066811.2 LineCode=spacing_3__ph2 Length=0.122873 units=km
New Line.ln6350574-1 phases=3 Bus1=m1108381.1.2.3 Bus2=l3254237.1.2.3 LineCode=spacing_4 Length=0.0759549 units=km
New Line.ln5895789-2 phases=3 Bus1=n1139552.1.2.3 Bus2=m1026702.1.2.3 LineCode=spacing_6 Length=0.0876766 units=km
New Line.ln5895789-3 phases=3 Bus1=r18243.1.2.3 Bus2=n1139552.1.2.3 LineCode=spacing_6 Length=0.0309613 units=km
New Line.ln5958865-1 phases=3 Bus1=m1209800.1.2.3 Bus2=p829957.1.2.3 LineCode=spacing_20 Length=0.0100898 units=km
New Line.ln6169251-1 phases=3 Bus1=m1026978.1.2.3 Bus2=m1026979.1.2.3 LineCode=spacing_20 Length=0.00456011 units=km
New Line.ln5686489-1 phases=1 Bus1=m1108316.3 Bus2=196-35541.3 LineCode=spacing_12__ph3 Length=0.00838413 units=km
New Line.ln6327237-1 phases=1 Bus1=m1026693.2 Bus2=m1026699.2 LineCode=spacing_3__ph2 Length=0.0852437 units=km
New Line.ln5866187-1 phases=1 Bus1=m1166402.3 Bus2=l3048889.3 LineCode=spacing_14__ph3 Length=0.0936175 units=km
New Line.ln6327237-2 phases=1 Bus1=m1026699.2 Bus2=m1026704.2 LineCode=spacing_3__ph2 Length=0.0525381 units=km
New Line.ln5773033-1 phases=1 Bus1=m1047513.3 Bus2=p901913.3 LineCode=spacing_12__ph3 Length=0.0062548 units=km
New Line.ln5472368-1 phases=1 Bus1=m1047358.1 Bus2=l2729411.1 LineCode=spacing_2__ph1 Length=0.0967383 units=km
New Line.ln5504714-1 phases=1 Bus1=m1026485.2 Bus2=p827542.2 LineCode=spacing_3__ph2 Length=0.00736824 units=km
New Line.ln5774449-1 phases=1 Bus1=m1089204.1 Bus2=l3010557.1 LineCode=spacing_1__ph1 Length=0.0439214 units=km
New Line.ln5773046-1 phases=1 Bus1=m1069560.2 Bus2=m1069567.2 LineCode=spacing_5__ph2 Length=0.0814282 units=km
New Line.ln5773046-2 phases=1 Bus1=m1069551.2 Bus2=m1069560.2 LineCode=spacing_5__ph2 Length=0.121818 units=km
New Line.ln2001202-1 phases=1 Bus1=d2001201_int.3 Bus2=m2001202.3 LineCode=spacing_10__ph3 Length=0.0482309 units=km
New Line.ln6229831-1 phases=1 Bus1=l2710542.2 Bus2=l2729430.2 LineCode=spacing_5__ph2 Length=0.0353696 units=km
New Line.ln5956499-3 phases=3 Bus1=q14411.1.2.3 Bus2=m1069428.1.2.3 LineCode=spacing_4 Length=0.0453582 units=km
New Line.ln5804798-3 phases=1 Bus1=d5804798-3_int.2 Bus2=m1047766.2 LineCode=spacing_5__ph2 Length=0.0307994 units=km
New Line.ln6379375-1 phases=1 Bus1=m1010013.1 Bus2=l3120503.1 LineCode=spacing_1__ph1 Length=0.0548289 units=km
New Line.ln5956499-2 phases=3 Bus1=l2766749.1.2.3 Bus2=d5956499-2_int.1.2.3 LineCode=spacing_4 Length=0.040739 units=km
New Line.ln5804798-2 phases=1 Bus1=m1047763.2 Bus2=n1136030.2 LineCode=spacing_5__ph2 Length=0.0175254 units=km
New Line.ln5986931-2 phases=1 Bus1=m3036165.2 Bus2=l3235252.2 LineCode=spacing_3__ph2 Length=0.0653122 units=km
New Line.ln6110366-1 phases=1 Bus1=p827553.2 Bus2=m1047826.2 LineCode=spacing_5__ph2 Length=0.00535442 units=km
New Line.ln6108170-1 phases=1 Bus1=m1047793.2 Bus2=m1047795.2 LineCode=spacing_5__ph2 Length=0.00654436 units=km
New Line.ln6138596-1 phases=1 Bus1=m1069390.1 Bus2=l2841618.1 LineCode=spacing_21__ph1 Length=0.0461178 units=km
New Line.ln5562934-1 phases=3 Bus1=m1026800.1.2.3 Bus2=m1026797.1.2.3 LineCode=spacing_6 Length=0.0583802 units=km
New Line.ln5623394-1 phases=1 Bus1=m1047388.2 Bus2=l2729407.2 LineCode=spacing_5__ph2 Length=0.0492603 units=km
New Line.ln5806920-1 phases=1 Bus1=m1027039.2 Bus2=d5806920-1_int.2 LineCode=spacing_3__ph2 Length=0.00457291 units=km
New Line.ln5926291-1 phases=3 Bus1=m1069418.1.2.3 Bus2=m1069417.1.2.3 LineCode=spacing_4 Length=0.0877702 units=km
New Line.ln6411373-3 phases=1 Bus1=n1147864.1 Bus2=l2710536.1 LineCode=spacing_1__ph1 Length=0.0686684 units=km
New Line.ln6411373-2 phases=1 Bus1=m1026902.1 Bus2=n1147864.1 LineCode=spacing_1__ph1 Length=0.0105738 units=km
New Line.ln2001006-1 phases=1 Bus1=m2001005.2 Bus2=m2001006.2 LineCode=spacing_3__ph2 Length=0.0482309 units=km
New Line.ln5472359-1 phases=1 Bus1=m1047406.1 Bus2=l3216348.1 LineCode=spacing_22__ph1 Length=0.0292355 units=km
New Line.ln5650048-1 phases=1 Bus1=m1069610.2 Bus2=m1069600.2 LineCode=spacing_3__ph2 Length=0.0609597 units=km
New Line.ln5623404-1 phases=1 Bus1=l3263051.3 Bus2=m1069199.3 LineCode=spacing_14__ph3 Length=0.0714308 units=km
New Line.ln5644817-1 phases=1 Bus1=m1008733.2 Bus2=l3225319.2 LineCode=spacing_16__ph2 Length=0.0137203 units=km
New Line.ln6048521-1 phases=1 Bus1=m1108375.3 Bus2=l3160793.3 LineCode=spacing_14__ph3 Length=0.053842 units=km
New Line.ln5654472-1 phases=3 Bus1=m1209791.1.2.3 Bus2=m1209790.1.2.3 LineCode=spacing_6 Length=0.0552429 units=km
New Line.ln5651998-1 phases=1 Bus1=l3048937.3 Bus2=l3176661.3 LineCode=spacing_14__ph3 Length=0.10818 units=km
New Line.ln6199531-1 phases=1 Bus1=l2841638.3 Bus2=l2860492.3 LineCode=spacing_14__ph3 Length=0.0912193 units=km
New Line.ln6262263-1 phases=1 Bus1=m1026961.1 Bus2=l2710516.1 LineCode=spacing_22__ph1 Length=0.0857655 units=km
New Line.ln5653465-1 phases=1 Bus1=m1026366.1 Bus2=l3122824.1 LineCode=spacing_2__ph1 Length=0.0625437 units=km
New Line.ln5682333-1 phases=1 Bus1=p901905.2 Bus2=l2804257.2 LineCode=spacing_3__ph2 Length=0.0258007 units=km
New Line.ln6138606-1 phases=1 Bus1=l2954350.2 Bus2=m1069206.2 LineCode=spacing_23__ph2 Length=0.114832 units=km
New Line.ln5956464-1 phases=3 Bus1=m1047669.1.2.3 Bus2=m1047672.1.2.3 LineCode=spacing_24 Length=0.00339456 units=km
New Line.ln6201850-1 phases=3 Bus1=e183493.1.2.3 Bus2=m1125902.1.2.3 LineCode=spacing_6 Length=0.0892592 units=km
New Line.ln5926301-1 phases=3 Bus1=m1026926.1.2.3 Bus2=m1026927.1.2.3 LineCode=spacing_19 Length=0.0140656 units=km
New Line.ln5593219-1 phases=3 Bus1=m1089189.1.2.3 Bus2=l2841619.1.2.3 LineCode=spacing_4 Length=0.0793544 units=km
New Line.ln6259994-2 phases=1 Bus1=n1139549.1 Bus2=l2879074.1 LineCode=spacing_1__ph1 Length=0.0439561 units=km
New Line.ln6350552-1 phases=1 Bus1=m1009843.2 Bus2=l3160108.2 LineCode=spacing_5__ph2 Length=0.0570497 units=km
New Line.ln6259994-3 phases=1 Bus1=m1026646.1 Bus2=n1139549.1 LineCode=spacing_1__ph1 Length=0.0518325 units=km
New Line.ln6352699-1 phases=3 Bus1=p827514.1.2.3 Bus2=m1026876.1.2.3 LineCode=spacing_4 Length=0.00609356 units=km
New Line.ln5604685-1 phases=3 Bus1=m1089143.1.2.3 Bus2=m1089145.1.2.3 LineCode=spacing_20 Length=0.0740667 units=km
New Line.ln6044631-1 phases=3 Bus1=e203026.1.2.3 Bus2=m1009650.1.2.3 LineCode=spacing_6 Length=0.271471 units=km
New Line.ln6077775-1 phases=1 Bus1=m1026947.2 Bus2=m1026946.2 LineCode=spacing_5__ph2 Length=0.138647 units=km
New Line.ln5604685-2 phases=3 Bus1=m1089145.1.2.3 Bus2=l3047289.1.2.3 LineCode=spacing_20 Length=0.0740661 units=km
New Line.ln5502531-1 phases=3 Bus1=l3104125.1.2.3 Bus2=m1089131.1.2.3 LineCode=spacing_6 Length=0.0382469 units=km
New Line.ln6048641-1 phases=1 Bus1=m1108276.2 Bus2=l2786273.2 LineCode=spacing_5__ph2 Length=0.0413885 units=km
New Line.ln5651985-3 phases=1 Bus1=n1136357.3 Bus2=l2897790.3 LineCode=spacing_14__ph3 Length=0.0399837 units=km
New Line.ln5653478-1 phases=1 Bus1=m1069554.2 Bus2=l3160115.2 LineCode=spacing_16__ph2 Length=0.033322 units=km
New Line.ln5651985-2 phases=1 Bus1=m1069548.3 Bus2=n1136357.3 LineCode=spacing_14__ph3 Length=0.018662 units=km
New Line.ln5776833-1 phases=1 Bus1=p830058.3 Bus2=m1166370.3 LineCode=spacing_15__ph3 Length=0.00886785 units=km
New Line.ln5686245-2 phases=1 Bus1=p829961.1 Bus2=n1141476.1 LineCode=spacing_25__ph1 Length=0.00989015 units=km
New Line.ln5528079-3 phases=1 Bus1=l3027133.3 Bus2=m3037453.3 LineCode=spacing_26__ph3 Length=0.0603123 units=km
New Line.ln5686245-3 phases=1 Bus1=n1141476.1 Bus2=l2692654.1 LineCode=spacing_25__ph1 Length=0.0763835 units=km
New Line.ln6324073-1 phases=1 Bus1=m1166396.3 Bus2=m1166399.3 LineCode=spacing_14__ph3 Length=0.0672285 units=km
New Line.ln5503479-1 phases=1 Bus1=l2767342.1 Bus2=l2748780.1 LineCode=spacing_2__ph1 Length=0.0488887 units=km
New Line.ln6108139-1 phases=1 Bus1=m1047471.2 Bus2=l3216349.2 LineCode=spacing_3__ph2 Length=0.0183996 units=km
New Line.ln5895776-1 phases=1 Bus1=l2804257.2 Bus2=l2860485.2 LineCode=spacing_3__ph2 Length=0.0594244 units=km
New Line.ln5863706-1 phases=3 Bus1=m1047503.1.2.3 Bus2=l2841635.1.2.3 LineCode=spacing_6 Length=0.0237665 units=km
New Line.ln5682346-3 phases=3 Bus1=n1134479.1.2.3 Bus2=d5682346-3_int.1.2.3 LineCode=spacing_6 Length=0.0633542 units=km
New Line.ln6259981-1 phases=1 Bus1=m1009834.2 Bus2=l3178969.2 LineCode=spacing_5__ph2 Length=0.0003048 units=km
New Line.ln6259981-2 phases=1 Bus1=l3178969.2 Bus2=l2729401.2 LineCode=spacing_5__ph2 Length=0.0766112 units=km
New Line.ln6290200-1 phases=3 Bus1=m1089207.1.2.3 Bus2=l3160098.1.2.3 LineCode=spacing_6 Length=0.0237025 units=km
New Line.ln5682346-2 phases=3 Bus1=m1069503.1.2.3 Bus2=n1134479.1.2.3 LineCode=spacing_6 Length=0.0283193 units=km
New Line.ln5683812-1 phases=1 Bus1=m1108364.3 Bus2=l2897766.3 LineCode=spacing_14__ph3 Length=0.09614 units=km
New Line.ln5835137-1 phases=1 Bus1=l3029500.1 Bus2=m1026764.1 LineCode=spacing_1__ph1 Length=0.0912443 units=km
New Line.ln6439986-2 phases=1 Bus1=p901932.3 Bus2=n1136359.3 LineCode=spacing_12__ph3 Length=0.00497769 units=km
New Line.ln6439986-3 phases=1 Bus1=n1136359.3 Bus2=l3008237.3 LineCode=spacing_12__ph3 Length=0.0287996 units=km
New Line.ln6320366-1 phases=1 Bus1=l3010585.3 Bus2=m1026798.3 LineCode=spacing_27__ph3 Length=0.0580135 units=km
New Line.ln2000711-1 phases=1 Bus1=m2000710.2 Bus2=m2000711.2 LineCode=spacing_3__ph2 Length=0.0482309 units=km
New Line.ln5744352-1 phases=1 Bus1=m1069590.2 Bus2=l2801902.2 LineCode=spacing_3__ph2 Length=0.00976 units=km
New Line.ln6991377-17 phases=1 Bus1=m3949157.1 Bus2=l3728037.1 LineCode=spacing_1__ph1 Length=0.105393 units=km
New Line.ln6991377-16 phases=1 Bus1=l3727708.1 Bus2=m3949157.1 LineCode=spacing_1__ph1 Length=0.00507522 units=km
New Line.ln5562947-1 phases=1 Bus1=m1069551.2 Bus2=m1069555.2 LineCode=spacing_5__ph2 Length=0.0564359 units=km
New Line.ln6991377-18 phases=1 Bus1=l3728037.1 Bus2=m3949154.1 LineCode=spacing_1__ph1 Length=0.103688 units=km
New Line.ln5775367-1 phases=1 Bus1=m1126025.1 Bus2=l2823545.1 LineCode=spacing_28__ph1 Length=0.0556068 units=km
New Line.ln6991377-13 phases=1 Bus1=l3729298.1 Bus2=l3727707.1 LineCode=spacing_1__ph1 Length=0.0595863 units=km
New Line.ln6991377-15 phases=1 Bus1=l3727707.1 Bus2=l3727708.1 LineCode=spacing_1__ph1 Length=0.0550783 units=km
New Line.ln6350530-1 phases=1 Bus1=m1047819.2 Bus2=m1047821.2 LineCode=spacing_8__ph2 Length=0.0678052 units=km
New Line.ln5621848-3 phases=1 Bus1=n1136353.2 Bus2=l2820535.2 LineCode=spacing_3__ph2 Length=0.0106055 units=km
New Line.ln6077797-1 phases=1 Bus1=m1069627.2 Bus2=l2897791.2 LineCode=spacing_5__ph2 Length=0.138554 units=km
New Line.ln8945010-1 phases=1 Bus1=m1009655.3 Bus2=p827528.3 LineCode=spacing_29__ph3 Length=0.00708599 units=km
New Line.ln5684836-1 phases=3 Bus1=l2674027.1.2.3 Bus2=l2692633.1.2.3 LineCode=spacing_6 Length=0.0678817 units=km
New Line.ln6991377-11 phases=1 Bus1=l3729297.1 Bus2=l3729298.1 LineCode=spacing_1__ph1 Length=0.0625889 units=km
New Line.ln2001300-1 phases=3 Bus1=m2001200.1.2.3 Bus2=m2001300.1.2.3 LineCode=spacing_4 Length=0.144835 units=km
New Line.ln6291153-1 phases=1 Bus1=m1126023.1 Bus2=m1126017.1 LineCode=spacing_1__ph1 Length=0.0767846 units=km
New Line.ln6073917-1 phases=3 Bus1=l2763407.1.2.3 Bus2=m1186000.1.2.3 LineCode=spacing_20 Length=0.168647 units=km
New Line.ln5865234-1 phases=1 Bus1=m1047750.1 Bus2=m1047744.1 LineCode=spacing_1__ph1 Length=0.0843098 units=km
New Line.ln6320331-1 phases=1 Bus1=l3085396.1 Bus2=l3122813.1 LineCode=spacing_2__ph1 Length=0.233419 units=km
New Line.ln2000408-1 phases=1 Bus1=m2000407.1 Bus2=m2000408.1 LineCode=spacing_7__ph1 Length=0.0482309 units=km
New Line.ln5774489-1 phases=1 Bus1=m1009820.2 Bus2=l3254234.2 LineCode=spacing_5__ph2 Length=0.0798378 units=km
New Line.ln8979254-2 phases=3 Bus1=221-311905.1.2.3 Bus2=l3215203.1.2.3 LineCode=spacing_30 Length=0.0139818 units=km
New Line.ln8979254-1 phases=3 Bus1=p850080.1.2.3 Bus2=221-311905.1.2.3 LineCode=spacing_30 Length=0.00508559 units=km
New Line.ln6047558-1 phases=1 Bus1=m1089103.2 Bus2=l2673305.2 LineCode=spacing_16__ph2 Length=0.109418 units=km
New Line.ln6201698-2 phases=1 Bus1=p827529.2 Bus2=n1136668.2 LineCode=spacing_31__ph2 Length=0.00454182 units=km
New Line.ln6201698-3 phases=1 Bus1=n1136668.2 Bus2=l3029506.2 LineCode=spacing_31__ph2 Length=0.0432935 units=km
New Line.ln6350539-1 phases=1 Bus1=l3235249.1 Bus2=l2954348.1 LineCode=spacing_2__ph1 Length=0.0936656 units=km
New Line.ln5500962-1 phases=1 Bus1=l2954347.2 Bus2=m1026953.2 LineCode=spacing_3__ph2 Length=0.03048 units=km
New Line.ln6170293-1 phases=3 Bus1=l2992624.1.2.3 Bus2=m1125919.1.2.3 LineCode=spacing_6 Length=0.0510513 units=km
New Line.ln5500962-2 phases=1 Bus1=m1026953.2 Bus2=l3008232.2 LineCode=spacing_3__ph2 Length=0.0304794 units=km
New Line.ln5532748-5 phases=3 Bus1=m1047592.1.2.3 Bus2=m3763619.1.2.3 LineCode=spacing_4 Length=0.0400913 units=km
New Line.ln6351511-1 phases=3 Bus1=l2917328.1.2.3 Bus2=l2861218.1.2.3 LineCode=spacing_6 Length=0.0646011 units=km
New Line.ln5532748-6 phases=3 Bus1=m3763619.1.2.3 Bus2=m1026830.1.2.3 LineCode=spacing_4 Length=0.0420819 units=km
New Line.ln6108126-1 phases=1 Bus1=m1069169.1 Bus2=l2879064.1 LineCode=spacing_2__ph1 Length=0.0839041 units=km
New Line.ln6019479-1 phases=1 Bus1=m1026851.3 Bus2=p827536.3 LineCode=spacing_32__ph3 Length=0.00672511 units=km
New Line.ln5593224-2 phases=1 Bus1=m3036164.2 Bus2=l3085397.2 LineCode=spacing_5__ph2 Length=0.168827 units=km
New Line.ln5744330-1 phases=1 Bus1=l2860482.1 Bus2=l3254204.1 LineCode=spacing_2__ph1 Length=0.617176 units=km
New Line.ln5859993-1 phases=3 Bus1=l3104154.1.2.3 Bus2=l3104155.1.2.3 LineCode=spacing_4 Length=0.0404232 units=km
New Line.ln5804785-1 phases=1 Bus1=l2933120.3 Bus2=l3104117.3 LineCode=spacing_14__ph3 Length=0.250481 units=km
New Line.ln6017291-1 phases=1 Bus1=m1026940.2 Bus2=m1026935.2 LineCode=spacing_3__ph2 Length=0.114856 units=km
...

! Switches
New Line.ln5587300_sw phases=3 Bus1=d5578300-1_int.1.2.3 Bus2=l2692635.1.2.3 switch=y r1=0.001 x1=0 r0=0.001 x0=0 Length=1 units=none
New Line.tsw803273_sw phases=3 Bus1=d5803273-1_int.1.2.3 Bus2=m1069457.1.2.3 switch=y r1=0.001 x1=0 r0=0.001 x0=0 Length=1 units=none enabled=false
New Line.wf856_48332_sw phases=1 Bus1=228-1353934-4_int.3 Bus2=193-103041.3 switch=y r1=0.001 x1=0 r0=0.001 x0=0 Length=1 units=none enabled=false
New Line.ln0955074_sw phases=1 Bus1=n1139546.2 Bus2=d5955074-2_int.2 switch=y r1=0.001 x1=0 r0=0.001 x0=0 Length=1 units=none
New Line.x8223_48332_sw phases=3 Bus1=d6413567-3_int.1.2.3 Bus2=e182724.1.2.3 switch=y r1=0.001 x1=0 r0=0.001 x0=0 Length=1 units=none
New Line.hvmv69s1b3_sw phases=3 Bus1=hvmv69sub1_lsb2.1.2.3 Bus2=hvmv69s1s2_1.1.2.3 switch=y r1=0.001 x1=0 r0=0.001 x0=0 Length=1 units=none
New Line.v9109_48332_sw phases=1 Bus1=d6140776-1_int.1 Bus2=e182730.1 switch=y r1=0.001 x1=0 r0=0.001 x0=0 Length=1 units=none
New Line.ln0742811_sw phases=3 Bus1=d5742811-3_int.1.2.3 Bus2=n1137992.1.2.3 switch=y r1=0.001 x1=0 r0=0.001 x0=0 Length=1 units=none
New Line.ln2001mt2_sw phases=3 Bus1=m2001der-2.1.2.3 Bus2=m2001-mt2.1.2.3 switch=y r1=0.001 x1=0 r0=0.001 x0=0 Length=1 units=none
New Line.v9287_48332_sw phases=1 Bus1=d6019477-1_int.3 Bus2=e182727.3 switch=y r1=0.001 x1=0 r0=0.001 x0=0 Length=1 units=none
New Line.l5523_48332_sw phases=3 Bus1=d6049825-1_int.1.2.3 Bus2=e182748.1.2.3 switch=y r1=0.001 x1=0 r0=0.001 x0=0 Length=1 units=none
New Line.l5397_48332_sw phases=1 Bus1=d6049822-1_int.1 Bus2=e182722.1 switch=y r1=0.001 x1=0 r0=0.001 x0=0 Length=1 units=none
New Line.ln2000001_sw phases=3 Bus1=m2000100.1.2.3 Bus2=d2000100_int.1.2.3 switch=y r1=0.001 x1=0 r0=0.001 x0=0 Length=1 units=none
New Line.ln0623395_sw phases=1 Bus1=m1047767.2 Bus2=d5623395-1_int.2 switch=y r1=0.001 x1=0 r0=0.001 x0=0 Length=1 units=none
New Line.ln1186mt3_sw phases=3 Bus1=m1186der-3.1.2.3 Bus2=m1186-wt3.1.2.3 switch=y r1=0.001 x1=0 r0=0.001 x0=0 Length=1 units=none
New Line.ln4651075_sw phases=3 Bus1=d5860450-1_int.1.2.3 Bus2=m1047575.1.2.3 switch=y r1=0.001 x1=0 r0=0.001 x0=0 Length=1 units=none
New Line.v7995_48332_sw phases=3 Bus1=d5837361-8_int.1.2.3 Bus2=e182745.1.2.3 switch=y r1=0.001 x1=0 r0=0.001 x0=0 Length=1 units=none
New Line.ln4641075_sw phases=3 Bus1=d5860423-3_int.1.2.3 Bus2=q14733.1.2.3 switch=y r1=0.001 x1=0 r0=0.001 x0=0 Length=1 units=none
New Line.hvmv69s3b1_sw phases=3 Bus1=hvmv69s2s3_2.1.2.3 Bus2=hvmv69sub3_hsb.1.2.3 switch=y r1=0.001 x1=0 r0=0.001 x0=0 Length=1 units=none
New Line.ln0621886_sw phases=3 Bus1=m1009805.1.2.3 Bus2=d5621886-1_int.1.2.3 switch=y r1=0.001 x1=0 r0=0.001 x0=0 Length=1 units=none
New Line.a8869_48332_sw phases=3 Bus1=d6198039-1_int.1.2.3 Bus2=e206217.1.2.3 switch=y r1=0.001 x1=0 r0=0.001 x0=0 Length=1 units=none
New Line.ln0409774_sw phases=1 Bus1=n1136027.1 Bus2=d6409775-4_int.1 switch=y r1=0.001 x1=0 r0=0.001 x0=0 Length=1 units=none
New Line.ln0017316_sw phases=1 Bus1=l2729430.2 Bus2=d6017316-1_int.2 switch=y r1=0.001 x1=0 r0=0.001 x0=0 Length=1 units=none
New Line.l9407_48332_sw phases=3 Bus1=d6023352-1_int.1.2.3 Bus2=e184626.1.2.3 switch=y r1=0.001 x1=0 r0=0.001 x0=0 Length=1 units=none
New Line.l5565_48332_sw phases=1 Bus1=d6140778-1_int.2 Bus2=e182731.2 switch=y r1=0.001 x1=0 r0=0.001 x0=0 Length=1 units=none
New Line.ln5001chp_sw phases=3 Bus1=m1026chp-1.1.2.3 Bus2=m1026chp-2.1.2.3 switch=y r1=0.001 x1=0 r0=0.001 x0=0 Length=1 units=none
New Line.dg1069mt1_sw phases=3 Bus1=m1069der480-1.1.2.3 Bus2=m1069-mt1.1.2.3 switch=y r1=0.001 x1=0 r0=0.001 x0=0 Length=1 units=none
New Line.ln4586093_sw phases=3 Bus1=d6138608-3_int.1.2.3 Bus2=q14404.1.2.3 switch=y r1=0.001 x1=0 r0=0.001 x0=0 Length=1 units=none
New Line.ln0653457_sw phases=3 Bus1=l3085398.1.2.3 Bus2=d5653457-1_int.1.2.3 switch=y r1=0.001 x1=0 r0=0.001 x0=0 Length=1 units=none enabled=false
New Line.v7173_48332_sw phases=3 Bus1=d5534969-2_int.1.2.3 Bus2=e182729.1.2.3 switch=y r1=0.001 x1=0 r0=0.001 x0=0 Length=1 units=none enabled=false
New Line.dg1209dies_sw phases=3 Bus1=m1209der480-1.1.2.3 Bus2=m1209-dies1.1.2.3 switch=y r1=0.001 x1=0 r0=0.001 x0=0 Length=1 units=none
New Line.hvmv69s2b3_sw phases=3 Bus1=hvmv69s1s2_10.1.2.3 Bus2=hvmv69sub2_lnb.1.2.3 switch=y r1=0.001 x1=0 r0=0.001 x0=0 Length=1 units=none
New Line.2002200004991174_sw phases=3 Bus1=d6290228-6_int.1.2.3 Bus2=q16642.1.2.3 switch=y r1=0.001 x1=0 r0=0.001 x0=0 Length=1 units=none
New Line.dg1089dies_sw phases=3 Bus1=m1089der480-2.1.2.3 Bus2=m1089-dies1.1.2.3 switch=y r1=0.001 x1=0 r0=0.001 x0=0 Length=1 units=none
New Line.ln0504876_sw phases=3 Bus1=m1142818.1.2.3 Bus2=d5504876-1_int.1.2.3 switch=y r1=0.001 x1=0 r0=0.001 x0=0 Length=1 units=none
New Line.ln0247162_sw phases=1 Bus1=d5472341-1_int.2 Bus2=f739842.2 switch=y r1=0.001 x1=0 r0=0.001 x0=0 Length=1 units=none
New Line.ln0863704_sw phases=3 Bus1=l2858166.1.2.3 Bus2=d5863704-2_int.1.2.3 switch=y r1=0.001 x1=0 r0=0.001 x0=0 Length=1 units=none
New Line.ln0712477_sw phases=1 Bus1=n1139545.3 Bus2=d5712477-3_int.3 switch=y r1=0.001 x1=0 r0=0.001 x0=0 Length=1 units=none
New Line.ln2001201_sw phases=1 Bus1=m2001201.3 Bus2=d2001201_int.3 switch=y r1=0.001 x1=0 r0=0.001 x0=0 Length=1 units=none
New Line.ln2001ess2_sw phases=3 Bus1=m2001der-5.1.2.3 Bus2=m2001-ess2.1.2.3 switch=y r1=0.001 x1=0 r0=0.001 x0=0 Length=1 units=none
New Line.v9111_48332_sw phases=3 Bus1=d6108141-1_int.1.2.3 Bus2=e206209.1.2.3 switch=y r1=0.001 x1=0 r0=0.001 x0=0 Length=1 units=none
New Line.ln4625696_sw phases=3 Bus1=d5926308-3_int.1.2.3 Bus2=q14412.1.2.3 switch=y r1=0.001 x1=0 r0=0.001 x0=0 Length=1 units=none
New Line.dg1142lng_sw phases=3 Bus1=m1142der480-1.1.2.3 Bus2=m1142-lng1.1.2.3 switch=y r1=0.001 x1=0 r0=0.001 x0=0 Length=1 units=none
New Line.ln0774470_sw phases=1 Bus1=n1138594.1 Bus2=d5774470-2_int.1 switch=y r1=0.001 x1=0 r0=0.001 x0=0 Length=1 units=none
New Line.ln1186mt1_sw phases=3 Bus1=m1186der-1.1.2.3 Bus2=m1186-wt1.1.2.3 switch=y r1=0.001 x1=0 r0=0.001 x0=0 Length=1 units=none
New Line.a8611_48332_sw phases=3 Bus1=d5799561-2_int.1.2.3 Bus2=e193509.1.2.3 switch=y r1=0.001 x1=0 r0=0.001 x0=0 Length=1 units=none
New Line.hvmv69s2b4_sw phases=3 Bus1=hvmv69sub2_lnb.1.2.3 Bus2=hvmv69s2s3_1.1.2.3 switch=y r1=0.001 x1=0 r0=0.001 x0=0 Length=1 units=none
New Line.ln0108145_sw phases=3 Bus1=l2879078.1.2.3 Bus2=d6108145-1_int.1.2.3 switch=y r1=0.001 x1=0 r0=0.001 x0=0 Length=1 units=none
New Line.ln0956471_sw phases=3 Bus1=n1136670.1.2.3 Bus2=d5956471-2_int.1.2.3 switch=y r1=0.001 x1=0 r0=0.001 x0=0 Length=1 units=none
New Line.ln0774458_sw phases=3 Bus1=m1026915.1.2.3 Bus2=d5774457-1_int.1.2.3 switch=y r1=0.001 x1=0 r0=0.001 x0=0 Length=1 units=none
New Line.ln0653469_sw phases=1 Bus1=l3066818.2 Bus2=d5653469-1_int.2 switch=y r1=0.001 x1=0 r0=0.001 x0=0 Length=1 units=none
New Line.v7041_48332_sw phases=3 Bus1=d5867591-1_int.1.2.3 Bus2=e183472.1.2.3 switch=y r1=0.001 x1=0 r0=0.001 x0=0 Length=1 units=none
New Line.hvmv69s1b2_sw phases=3 Bus1=d5710794-3_int.1.2.3 Bus2=e192860.1.2.3 switch=y r1=0.001 x1=0 r0=0.001 x0=0 Length=1 units=none
New Line.ln05534967_sw phases=3 Bus1=m1089174.1.2.3 Bus2=d5534967-1_int.1.2.3 switch=y r1=0.001 x1=0 r0=0.001 x0=0 Length=1 units=none
New Line.ln0504019_sw phases=3 Bus1=m3032981.1.2.3 Bus2=d6504019-6_int.1.2.3 switch=y r1=0.001 x1=0 r0=0.001 x0=0 Length=1 units=none
New Line.x8271_48332_sw phases=1 Bus1=d5712486-1_int.3 Bus2=e206210.3 switch=y r1=0.001 x1=0 r0=0.001 x0=0 Length=1 units=none
New Line.v7313_48332_sw phases=1 Bus1=d5806920-1_int.2 Bus2=e182726.2 switch=y r1=0.001 x1=0 r0=0.001 x0=0 Length=1 units=none
New Line.ln0440002_sw phases=1 Bus1=n1137999.3 Bus2=d6440002-2_int.3 switch=y r1=0.001 x1=0 r0=0.001 x0=0 Length=1 units=none
New Line.tsw10691069_sw phases=3 Bus1=m1069230.1.2.3 Bus2=m1069300.1.2.3 switch=y r1=0.001 x1=0 r0=0.001 x0=0 Length=1 units=none
New Line.hvmv69s2b1_sw phases=3 Bus1=hvmv69sub2_lnb.1.2.3 Bus2=hvmv69sub2_hsb.1.2.3 switch=y r1=0.001 x1=0 r0=0.001 x0=0 Length=1 units=none
New Line.hvmv69s3b2_sw phases=3 Bus1=hvmv11sub3_lsb.1.2.3 Bus2=e203026.1.2.3 switch=y r1=0.001 x1=0 r0=0.001 x0=0 Length=1 units=none
New Line.2002200004868472_sw phases=3 Bus1=d5563942-4_int.1.2.3 Bus2=q16483.1.2.3 switch=y r1=0.001 x1=0 r0=0.001 x0=0 Length=1 units=none
New Line.ln4625713_sw phases=3 Bus1=d5502543-2_int.1.2.3 Bus2=q14413.1.2.3 switch=y r1=0.001 x1=0 r0=0.001 x0=0 Length=1 units=none
New Line.2002200004641085_sw phases=3 Bus1=d5587291-3_int.1.2.3 Bus2=q14734.1.2.3 switch=y r1=0.001 x1=0 r0=0.001 x0=0 Length=1 units=none
New Line.xj171_48332_sw phases=3 Bus1=d5513564-1_int.1.2.3 Bus2=e192201.1.2.3 switch=y r1=0.001 x1=0 r0=0.001 x0=0 Length=1 units=none
New Line.l5437_48332_sw phases=3 Bus1=d5535139-1_int.1.2.3 Bus2=e183473.1.2.3 switch=y r1=0.001 x1=0 r0=0.001 x0=0 Length=1 units=none
New Line.ln0895780_sw phases=3 Bus1=n1140519.1.2.3 Bus2=d5895780-3_int.1.2.3 switch=y r1=0.001 x1=0 r0=0.001 x0=0 Length=1 units=none
New Line.ln4625680_sw phases=3 Bus1=d5956499-2_int.1.2.3 Bus2=q14411.1.2.3 switch=y r1=0.001 x1=0 r0=0.001 x0=0 Length=1 units=none
New Line.ln2000701_sw phases=1 Bus1=m2000701.2 Bus2=d2000701_int.2 switch=y r1=0.001 x1=0 r0=0.001 x0=0 Length=1 units=none
New Line.ln0712587_sw phases=1 Bus1=n1144667.1 Bus2=d5712587-2_int.1 switch=y r1=0.001 x1=0 r0=0.001 x0=0 Length=1 units=none
New Line.g9343_48332_sw phases=3 Bus1=d5682346-3_int.1.2.3 Bus2=e206211.1.2.3 switch=y r1=0.001 x1=0 r0=0.001 x0=0 Length=1 units=none
New Line.l9191_48332_sw phases=3 Bus1=d5534970-1_int.1.2.3 Bus2=e182732.1.2.3 switch=y r1=0.001 x1=0 r0=0.001 x0=0 Length=1 units=none
New Line.tsw568613_sw phases=1 Bus1=l2692000.1 Bus2=l2841000.1 switch=y r1=0.001 x1=0 r0=0.001 x0=0 Length=1 units=none enabled=false
New Line.wg127_48332_sw phases=1 Bus1=228-961799-3_int.3 Bus2=193-46661.3 switch=y r1=0.001 x1=0 r0=0.001 x0=0 Length=1 units=none enabled=false
New Line.hvmv69s2b2_sw phases=3 Bus1=hvmv11sub2_lsb.1.2.3 Bus2=m1047300.1.2.3 switch=y r1=0.001 x1=0 r0=0.001 x0=0 Length=1 units=none
New Line.x8225_48332_sw phases=1 Bus1=d5565090-1_int.2 Bus2=e182744.2 switch=y r1=0.001 x1=0 r0=0.001 x0=0 Length=1 units=none
New Line.tsw30473047_sw phases=3 Bus1=l3047059.1.2.3 Bus2=l3047060.1.2.3 switch=y r1=0.001 x1=0 r0=0.001 x0=0 Length=1 units=none
New Line.ln1047pvfrm_sw phases=3 Bus1=m1047pv-2.1.2.3 Bus2=m1047pv-1.1.2.3 switch=y r1=0.001 x1=0 r0=0.001 x0=0 Length=1 units=none
New Line.ln3693186_sw phases=3 Bus1=d5861005-2_int.1.2.3 Bus2=q1301.1.2.3 switch=y r1=0.001 x1=0 r0=0.001 x0=0 Length=1 units=none
New Line.hvmv115b1_sw phases=3 Bus1=hvmv115_hsb1.1.2.3 Bus2=hvmv115_hsb2.1.2.3 switch=y r1=0.001 x1=0 r0=0.001 x0=0 Length=1 units=none
New Line.hvmv69s1b4_sw phases=3 Bus1=regxfmr_hvmv69sub1_lsb1.1.2.3 Bus2=hvmv69sub1_lsb2.1.2.3 switch=y r1=0.001 x1=0 r0=0.001 x0=0 Length=1 units=none
New Line.tsw10891089_sw phases=3 Bus1=l2990827.1.2.3 Bus2=l2990828.1.2.3 switch=y r1=0.001 x1=0 r0=0.001 x0=0 Length=1 units=none
New Line.ln2001ess1_sw phases=3 Bus1=m2001der-4.1.2.3 Bus2=m2001-ess1.1.2.3 switch=y r1=0.001 x1=0 r0=0.001 x0=0 Length=1 units=none
New Line.ln2001mt3_sw phases=3 Bus1=m2001der-3.1.2.3 Bus2=m2001-mt3.1.2.3 switch=y r1=0.001 x1=0 r0=0.001 x0=0 Length=1 units=none
New Line.ln0804798_sw phases=1 Bus1=n1136030.2 Bus2=d5804798-3_int.2 switch=y r1=0.001 x1=0 r0=0.001 x0=0 Length=1 units=none
New Line.a8645_48332_sw phases=3 Bus1=d5958866-1_int.1.2.3 Bus2=e183493.1.2.3 switch=y r1=0.001 x1=0 r0=0.001 x0=0 Length=1 units=none enabled=false
New Line.ln0141147_sw phases=1 Bus1=d6141147-1_int.3 Bus2=m1108317.3 switch=y r1=0.001 x1=0 r0=0.001 x0=0 Length=1 units=none
New Line.dg1089lng_sw phases=3 Bus1=m1089der480-1.1.2.3 Bus2=m1089-lng1.1.2.3 switch=y r1=0.001 x1=0 r0=0.001 x0=0 Length=1 units=none
New Line.ln0138609_sw phases=3 Bus1=m1089112.1.2.3 Bus2=d6138609-1_int.1.2.3 switch=y r1=0.001 x1=0 r0=0.001 x0=0 Length=1 units=none
New Line.ln0746703_sw phases=3 Bus1=p829957.1.2.3 Bus2=d5746703-1_int.1.2.3 switch=y r1=0.001 x1=0 r0=0.001 x0=0 Length=1 units=none
New Line.l5659_48332_sw phases=1 Bus1=d6231996-1_int.2 Bus2=e206614.2 switch=y r1=0.001 x1=0 r0=0.001 x0=0 Length=1 units=none
New Line.tsw320328_sw phases=1 Bus1=d6320328-1_int.3 Bus2=l2879062.3 switch=y r1=0.001 x1=0 r0=0.001 x0=0 Length=1 units=none enabled=false
New Line.hvmv69s1b1_sw phases=3 Bus1=hvmv69sub1_lsb2.1.2.3 Bus2=hvmv69sub1_hsb.1.2.3 switch=y r1=0.001 x1=0 r0=0.001 x0=0 Length=1 units=none
New Line.ln2000901_sw phases=1 Bus1=m2000901.3 Bus2=d2000901_int.3 switch=y r1=0.001 x1=0 r0=0.001 x0=0 Length=1 units=none
New Line.ln2000401_sw phases=1 Bus1=m2000401.1 Bus2=d2000401_int.1 switch=y r1=0.001 x1=0 r0=0.001 x0=0 Length=1 units=none
New Line.ln5472335_sw phases=3 Bus1=d5472350-1_int.1.2.3 Bus2=m1089120.1.2.3 switch=y r1=0.001 x1=0 r0=0.001 x0=0 Length=1 units=none
New Line.ln0077781_sw phases=3 Bus1=d6077791-3_int.1.2.3 Bus2=m1047522.1.2.3 switch=y r1=0.001 x1=0 r0=0.001 x0=0 Length=1 units=none
New Line.ln247171_sw phases=1 Bus1=d6047588-1_int.2 Bus2=f739844.2 switch=y r1=0.001 x1=0 r0=0.001 x0=0 Length=1 units=none
New Line.ln2001301_sw phases=1 Bus1=m2001301.1 Bus2=d2001301_int.1 switch=y r1=0.001 x1=0 r0=0.001 x0=0 Length=1 units=none
New Line.ln2001001_sw phases=1 Bus1=m2001001.2 Bus2=d2001001_int.2 switch=y r1=0.001 x1=0 r0=0.001 x0=0 Length=1 units=none
New Line.ln247160_sw phases=1 Bus1=d5865224-1_int.2 Bus2=f739841.2 switch=y r1=0.001 x1=0 r0=0.001 x0=0 Length=1 units=none
New Line.a333_48332_sw phases=3 Bus1=d5746546-1_int.1.2.3 Bus2=e182723.1.2.3 switch=y r1=0.001 x1=0 r0=0.001 x0=0 Length=1 units=none enabled=false
New Line.ln0048634_sw phases=3 Bus1=m1186072.1.2.3 Bus2=d6048634-1_int.1.2.3 switch=y r1=0.001 x1=0 r0=0.001 x0=0 Length=1 units=none
New Line.ln0017295_sw phases=3 Bus1=l2973156.1.2.3 Bus2=d6017295-1_int.1.2.3 switch=y r1=0.001 x1=0 r0=0.001 x0=0 Length=1 units=none
New Line.ln0170302_sw phases=3 Bus1=d6170302-1_int.1.2.3 Bus2=l2879773.1.2.3 switch=y r1=0.001 x1=0 r0=0.001 x0=0 Length=1 units=none
New Line.ln1186mt2_sw phases=3 Bus1=m1186der-2.1.2.3 Bus2=m1186-wt2.1.2.3 switch=y r1=0.001 x1=0 r0=0.001 x0=0 Length=1 units=none
New Line.ln4625876_sw phases=3 Bus1=d5835167-6_int.1.2.3 Bus2=q14414.1.2.3 switch=y r1=0.001 x1=0 r0=0.001 x0=0 Length=1 units=none
New Line.ln293471_sw phases=3 Bus1=d5686080-1_int.1.2.3 Bus2=f739845.1.2.3 switch=y r1=0.001 x1=0 r0=0.001 x0=0 Length=1 units=none
New Line.ln2001mt1_sw phases=3 Bus1=m2001der-1.1.2.3 Bus2=m2001-mt1.1.2.3 switch=y r1=0.001 x1=0 r0=0.001 x0=0 Length=1 units=none
New Line.l5491_48332_sw phases=1 Bus1=d5655682-1_int.2 Bus2=e182725.2 switch=y r1=0.001 x1=0 r0=0.001 x0=0 Length=1 units=none

! Loads
New Load.293657b0b Bus1=sx3189189b.2.0 phases=1 kV=0.069282 kW=1.713 kvar=0.429318 model=1 Vminpu=0.5 Vmaxpu=1.5
New Load.260481c0a Bus1=sx2730163c.1.0 phases=1 kV=0.069282 kW=9.692 kvar=2.42904 model=1 Vminpu=0.5 Vmaxpu=1.5
New Load.260481c0b Bus1=sx2730163c.2.0 phases=1 kV=0.069282 kW=3.478 kvar=0.871669 model=1 Vminpu=0.5 Vmaxpu=1.5
New Load.293657b0a Bus1=sx3189189b.1.0 phases=1 kV=0.069282 kW=4.127 kvar=1.03432 model=1 Vminpu=0.5 Vmaxpu=1.5
New Load.21380528a0b Bus1=sx2973150a.2.0 phases=1 kV=0.069282 kW=3.766 kvar=0.943849 model=1 Vminpu=0.5 Vmaxpu=1.5
New Load.337718a0b Bus1=sx2691947a.2.0 phases=1 kV=0.069282 kW=2.053 kvar=0.51453 model=1 Vminpu=0.5 Vmaxpu=1.5
New Load.338896a0b Bus1=sx3178971a.2.0 phases=1 kV=0.069282 kW=5.075 kvar=1.27191 model=1 Vminpu=0.5 Vmaxpu=1.5
New Load.338896a0a Bus1=sx3178971a.1.0 phases=1 kV=0.069282 kW=3.245 kvar=0.813274 model=1 Vminpu=0.5 Vmaxpu=1.5
New Load.138466c0b Bus1=sx2973144c.2.0 phases=1 kV=0.069282 kW=2.069 kvar=0.51854 model=1 Vminpu=0.5 Vmaxpu=1.5
New Load.138466c0a Bus1=sx2973144c.1.0 phases=1 kV=0.069282 kW=8.101 kvar=2.0303 model=1 Vminpu=0.5 Vmaxpu=1.5
New Load.21380528a0a Bus1=sx2973150a.1.0 phases=1 kV=0.069282 kW=1.554 kvar=0.389469 model=1 Vminpu=0.5 Vmaxpu=1.5
New Load.337718a0a Bus1=sx2691947a.1.0 phases=1 kV=0.069282 kW=1.497 kvar=0.375184 model=1 Vminpu=0.5 Vmaxpu=1.5
New Load.227760021c0a Bus1=sx2803199c.1.0 phases=1 kV=0.069282 kW=8.694 kvar=2.17892 model=1 Vminpu=0.5 Vmaxpu=1.5
New Load.260457b0a Bus1=sx3086079b.1.0 phases=1 kV=0.069282 kW=2.9 kvar=0.726809 model=1 Vminpu=0.5 Vmaxpu=1.5
New Load.21389962c0a Bus1=sx2804249c.1.0 phases=1 kV=0.069282 kW=3.972 kvar=0.995477 model=1 Vminpu=0.5 Vmaxpu=1.5
New Load.337673a0b Bus1=sx2841618a.2.0 phases=1 kV=0.069282 kW=7.362 kvar=1.84509 model=1 Vminpu=0.5 Vmaxpu=1.5
New Load.21389962c0b Bus1=sx2804249c.2.0 phases=1 kV=0.069282 kW=2.128 kvar=0.533327 model=1 Vminpu=0.5 Vmaxpu=1.5
New Load.227760021c0b Bus1=sx2803199c.2.0 phases=1 kV=0.069282 kW=11.646 kvar=2.91876 model=1 Vminpu=0.5 Vmaxpu=1.5
New Load.260457b0b Bus1=sx3086079b.2.0 phases=1 kV=0.069282 kW=3.99 kvar=0.999988 model=1 Vminpu=0.5 Vmaxpu=1.5
New Load.260595c0b Bus1=sx2767340c.2.0 phases=1 kV=0.069282 kW=29.273 kvar=7.33651 model=1 Vminpu=0.5 Vmaxpu=1.5
New Load.227905262a0b Bus1=sx3140238a.2.0 phases=1 kV=0.069282 kW=8.836 kvar=2.21451 model=1 Vminpu=0.5 Vmaxpu=1.5
New Load.227905262a0a Bus1=sx3140238a.1.0 phases=1 kV=0.069282 kW=3.354 kvar=0.840592 model=1 Vminpu=0.5 Vmaxpu=1.5
New Load.321855b0b Bus1=sx2860485b.2.0 phases=1 kV=0.069282 kW=2.802 kvar=0.702247 model=1 Vminpu=0.5 Vmaxpu=1.5
New Load.355591b0b Bus1=sx2822858b.2.0 phases=1 kV=0.069282 kW=2.991 kvar=0.749615 model=1 Vminpu=0.5 Vmaxpu=1.5
New Load.337673a0a Bus1=sx2841618a.1.0 phases=1 kV=0.069282 kW=1.508 kvar=0.37794 model=1 Vminpu=0.5 Vmaxpu=1.5
New Load.321855b0a Bus1=sx2860485b.1.0 phases=1 kV=0.069282 kW=3.038 kvar=0.761395 model=1 Vminpu=0.5 Vmaxpu=1.5
New Load.355591b0a Bus1=sx2822858b.1.0 phases=1 kV=0.069282 kW=6.739 kvar=1.68895 model=1 Vminpu=0.5 Vmaxpu=1.5
New Load.338977b0a Bus1=sx2916620b.1.0 phases=1 kV=0.069282 kW=3.372 kvar=0.845103 model=1 Vminpu=0.5 Vmaxpu=1.5
New Load.338977b0b Bus1=sx2916620b.2.0 phases=1 kV=0.069282 kW=3.518 kvar=0.881694 model=1 Vminpu=0.5 Vmaxpu=1.5
New Load.356010a0a Bus1=sx3216336a.1.0 phases=1 kV=0.069282 kW=2.04 kvar=0.511272 model=1 Vminpu=0.5 Vmaxpu=1.5
New Load.356800a0b Bus1=sx3235946a.2.0 phases=1 kV=0.069282 kW=3.363 kvar=0.842847 model=1 Vminpu=0.5 Vmaxpu=1.5
New Load.356800a0a Bus1=sx3235946a.1.0 phases=1 kV=0.069282 kW=8.507 kvar=2.13206 model=1 Vminpu=0.5 Vmaxpu=1.5
New Load.260595c0a Bus1=sx2767340c.1.0 phases=1 kV=0.069282 kW=1.247 kvar=0.312528 model=1 Vminpu=0.5 Vmaxpu=1.5
New Load.356010a0b Bus1=sx3216336a.2.0 phases=1 kV=0.069282 kW=6.83 kvar=1.71176 model=1 Vminpu=0.5 Vmaxpu=1.5
New Load.247105b0a Bus1=sx2691942b.1.0 phases=1 kV=0.069282 kW=1.848 kvar=0.463152 model=1 Vminpu=0.5 Vmaxpu=1.5
New Load.247105b0b Bus1=sx2691942b.2.0 phases=1 kV=0.069282 kW=3.992 kvar=1.00049 model=1 Vminpu=0.5 Vmaxpu=1.5
New Load.225571845b0a Bus1=sx2948732b.1.0 phases=1 kV=0.069282 kW=9.9 kvar=2.48117 model=1 Vminpu=0.5 Vmaxpu=1.5
New Load.338917a0b Bus1=sx2935555a.2.0 phases=1 kV=0.069282 kW=1.236 kvar=0.309771 model=1 Vminpu=0.5 Vmaxpu=1.5
New Load.338942a0b Bus1=sx2822869a.2.0 phases=1 kV=0.069282 kW=3.488 kvar=0.874175 model=1 Vminpu=0.5 Vmaxpu=1.5
New Load.225571845b0b Bus1=sx2948732b.2.0 phases=1 kV=0.069282 kW=5.83 kvar=1.46114 model=1 Vminpu=0.5 Vmaxpu=1.5
New Load.338917a0a Bus1=sx2935555a.1.0 phases=1 kV=0.069282 kW=4.084 kvar=1.02355 model=1 Vminpu=0.5 Vmaxpu=1.5
New Load.338942a0a Bus1=sx2822869a.1.0 phases=1 kV=0.069282 kW=8.382 kvar=2.10073 model=1 Vminpu=0.5 Vmaxpu=1.5
New Load.21398563a0b Bus1=sx3254216a.2.0 phases=1 kV=0.069282 kW=3.48 kvar=0.87217 model=1 Vminpu=0.5 Vmaxpu=1.5
New Load.228549643a0a Bus1=sx2916234a.1.0 phases=1 kV=0.069282 kW=1.891 kvar=0.473929 model=1 Vminpu=0.5 Vmaxpu=1.5
New Load.21398563a0a Bus1=sx3254216a.1.0 phases=1 kV=0.069282 kW=8.39 kvar=2.10273 model=1 Vminpu=0.5 Vmaxpu=1.5
New Load.321876a0b Bus1=sx3027132a.2.0 phases=1 kV=0.069282 kW=2.823 kvar=0.70751 model=1 Vminpu=0.5 Vmaxpu=1.5
New Load.2129399c0a Bus1=sx2991921c.1.0 phases=1 kV=0.069282 kW=5.319 kvar=1.33307 model=1 Vminpu=0.5 Vmaxpu=1.5
New Load.338932c0a Bus1=sx3197661c.1.0 phases=1 kV=0.069282 kW=3.71 kvar=0.929814 model=1 Vminpu=0.5 Vmaxpu=1.5
New Load.321876a0a Bus1=sx3027132a.1.0 phases=1 kV=0.069282 kW=2.497 kvar=0.625807 model=1 Vminpu=0.5 Vmaxpu=1.5
New Load.338932c0b Bus1=sx3197661c.2.0 phases=1 kV=0.069282 kW=5.39 kvar=1.35086 model=1 Vminpu=0.5 Vmaxpu=1.5
New Load.355431c0a Bus1=sx3048222c.1.0 phases=1 kV=0.069282 kW=12.606 kvar=3.15936 model=1 Vminpu=0.5 Vmaxpu=1.5
New Load.355431c0b Bus1=sx3048222c.2.0 phases=1 kV=0.069282 kW=2.654 kvar=0.665155 model=1 Vminpu=0.5 Vmaxpu=1.5
New Load.391994a0b Bus1=sx3066821a.2.0 phases=1 kV=0.069282 kW=1.173 kvar=0.293982 model=1 Vminpu=0.5 Vmaxpu=1.5
New Load.2129399c0b Bus1=sx2991921c.2.0 phases=1 kV=0.069282 kW=4.851 kvar=1.21578 model=1 Vminpu=0.5 Vmaxpu=1.5
New Load.339006b0a Bus1=sx2916619b.1.0 phases=1 kV=0.069282 kW=3.179 kvar=0.796733 model=1 Vminpu=0.5 Vmaxpu=1.5
New Load.339006b0b Bus1=sx2916619b.2.0 phases=1 kV=0.069282 kW=6.551 kvar=1.64184 model=1 Vminpu=0.5 Vmaxpu=1.5
New Load.391994a0a Bus1=sx3066821a.1.0 phases=1 kV=0.069282 kW=7.697 kvar=1.92905 model=1 Vminpu=0.5 Vmaxpu=1.5
New Load.323234b0a Bus1=sx2860480b.1.0 phases=1 kV=0.069282 kW=2.122 kvar=0.531823 model=1 Vminpu=0.5 Vmaxpu=1.5
New Load.323234b0b Bus1=sx2860480b.2.0 phases=1 kV=0.069282 kW=7.608 kvar=1.90674 model=1 Vminpu=0.5 Vmaxpu=1.5
New Load.227896008c0a Bus1=sx3177881c.1.0 phases=1 kV=0.069282 kW=2.275 kvar=0.570169 model=1 Vminpu=0.5 Vmaxpu=1.5
New Load.227896008c0b Bus1=sx3177881c.2.0 phases=1 kV=0.069282 kW=7.895 kvar=1.97867 model=1 Vminpu=0.5 Vmaxpu=1.5
New Load.294787a0b Bus1=sx3197647a.2.0 phases=1 kV=0.069282 kW=2.416 kvar=0.605507 model=1 Vminpu=0.5 Vmaxpu=1.5
New Load.392038b0a Bus1=sx2841634b.1.0 phases=1 kV=0.069282 kW=9.262 kvar=2.32128 model=1 Vminpu=0.5 Vmaxpu=1.5
New Load.337652b0b Bus1=sx2991939b.2.0 phases=1 kV=0.069282 kW=3.647 kvar=0.914024 model=1 Vminpu=0.5 Vmaxpu=1.5
New Load.392038b0b Bus1=sx2841634b.2.0 phases=1 kV=0.069282 kW=5.328 kvar=1.33532 model=1 Vminpu=0.5 Vmaxpu=1.5
New Load.294787a0a Bus1=sx3197647a.1.0 phases=1 kV=0.069282 kW=1.134 kvar=0.284207 model=1 Vminpu=0.5 Vmaxpu=1.5
New Load.337652b0a Bus1=sx2991939b.1.0 phases=1 kV=0.069282 kW=6.083 kvar=1.52454 model=1 Vminpu=0.5 Vmaxpu=1.5
New Load.227903012a0a Bus1=sx3177894a.1.0 phases=1 kV=0.069282 kW=5.817 kvar=1.45788 model=1 Vminpu=0.5 Vmaxpu=1.5
New Load.260514c0a Bus1=sx2674047c.1.0 phases=1 kV=0.069282 kW=5.026 kvar=1.25963 model=1 Vminpu=0.5 Vmaxpu=1.5
New Load.227903012a0b Bus1=sx3177894a.2.0 phases=1 kV=0.069282 kW=3.053 kvar=0.765154 model=1 Vminpu=0.5 Vmaxpu=1.5
New Load.260514c0b Bus1=sx2674047c.2.0 phases=1 kV=0.069282 kW=1.074 kvar=0.26917 model=1 Vminpu=0.5 Vmaxpu=1.5
New Load.293427c0a Bus1=sx3104157c.1.0 phases=1 kV=0.069282 kW=6.106 kvar=1.53031 model=1 Vminpu=0.5 Vmaxpu=1.5
New Load.247084b0a Bus1=sx3254211b.1.0 phases=1 kV=0.069282 kW=8.385 kvar=2.10148 model=1 Vminpu=0.5 Vmaxpu=1.5
New Load.247084b0b Bus1=sx3254211b.2.0 phases=1 kV=0.069282 kW=1.345 kvar=0.337089 model=1 Vminpu=0.5 Vmaxpu=1.5
New Load.138716c0b Bus1=sx3254219c.2.0 phases=1 kV=0.069282 kW=8.861 kvar=2.22078 model=1 Vminpu=0.5 Vmaxpu=1.5
New Load.247061a0a Bus1=sx2879054a.1.0 phases=1 kV=0.069282 kW=5.381 kvar=1.34861 model=1 Vminpu=0.5 Vmaxpu=1.5
New Load.138716c0a Bus1=sx3254219c.1.0 phases=1 kV=0.069282 kW=1.309 kvar=0.328066 model=1 Vminpu=0.5 Vmaxpu=1.5
New Load.247061a0b Bus1=sx2879054a.2.0 phases=1 kV=0.069282 kW=3.489 kvar=0.874426 model=1 Vminpu=0.5 Vmaxpu=1.5
New Load.274988c0a Bus1=sx3085394c.1.0 phases=1 kV=0.069282 kW=5.31 kvar=1.33081 model=1 Vminpu=0.5 Vmaxpu=1.5
New Load.274988c0b Bus1=sx3085394c.2.0 phases=1 kV=0.069282 kW=3.79 kvar=0.949864 model=1 Vminpu=0.5 Vmaxpu=1.5
New Load.293427c0b Bus1=sx3104157c.2.0 phases=1 kV=0.069282 kW=4.064 kvar=1.01853 model=1 Vminpu=0.5 Vmaxpu=1.5
New Load.2000907c0b Bus1=sx2000907c.2.0 phases=1 kV=0.120089 kW=4.7 kvar=2.66361 model=1 Vminpu=0.5 Vmaxpu=1.5
New Load.138566a0b Bus1=sx2785519a.2.0 phases=1 kV=0.069282 kW=4.562 kvar=1.14334 model=1 Vminpu=0.5 Vmaxpu=1.5
New Load.2000907c0a Bus1=sx2000907c.1.0 phases=1 kV=0.120089 kW=6.546 kvar=3.70979 model=1 Vminpu=0.5 Vmaxpu=1.5
New Load.338944c0b Bus1=sx3197640c.2.0 phases=1 kV=0.069282 kW=3.292 kvar=0.825053 model=1 Vminpu=0.5 Vmaxpu=1.5
New Load.338990b0a Bus1=sx2673331b.1.0 phases=1 kV=0.120089 kW=2.238 kvar=0.560896 model=1 Vminpu=0.5 Vmaxpu=1.5
New Load.2001306a0a Bus1=sx2001306a.1.0 phases=1 kV=0.120089 kW=5.983 kvar=3.39072 model=1 Vminpu=0.5 Vmaxpu=1.5
New Load.2001306a0b Bus1=sx2001306a.2.0 phases=1 kV=0.120089 kW=3.489 kvar=1.97731 model=1 Vminpu=0.5 Vmaxpu=1.5
New Load.338990b0b Bus1=sx2673331b.2.0 phases=1 kV=0.120089 kW=17.212 kvar=4.31373 model=1 Vminpu=0.5 Vmaxpu=1.5
New Load.356814c0b Bus1=sx2730106c.2.0 phases=1 kV=0.069282 kW=9.459 kvar=2.37065 model=1 Vminpu=0.5 Vmaxpu=1.5
New Load.138566a0a Bus1=sx2785519a.1.0 phases=1 kV=0.069282 kW=8.308 kvar=2.08218 model=1 Vminpu=0.5 Vmaxpu=1.5
New Load.337729b0b Bus1=sx2728247b.2.0 phases=1 kV=0.069282 kW=8.768 kvar=2.19747 model=1 Vminpu=0.5 Vmaxpu=1.5
New Load.338944c0a Bus1=sx3197640c.1.0 phases=1 kV=0.069282 kW=3.778 kvar=0.946856 model=1 Vminpu=0.5 Vmaxpu=1.5
New Load.356814c0a Bus1=sx2730106c.1.0 phases=1 kV=0.069282 kW=3.711 kvar=0.930064 model=1 Vminpu=0.5 Vmaxpu=1.5
New Load.337729b0a Bus1=sx2728247b.1.0 phases=1 kV=0.069282 kW=3.962 kvar=0.992971 model=1 Vminpu=0.5 Vmaxpu=1.5
New Load.21389307c0a Bus1=sx2692655c.1.0 phases=1 kV=0.069282 kW=4.761 kvar=1.19322 model=1 Vminpu=0.5 Vmaxpu=1.5
New Load.2224386874a0b Bus1=sx3727711a.2.0 phases=1 kV=0.069282 kW=5.162 kvar=1.29372 model=1 Vminpu=0.5 Vmaxpu=1.5
New Load.2224386874a0a Bus1=sx3727711a.1.0 phases=1 kV=0.069282 kW=3.158 kvar=0.791469 model=1 Vminpu=0.5 Vmaxpu=1.5
New Load.226193899b0b Bus1=sx3082983b.2.0 phases=1 kV=0.069282 kW=1.064 kvar=0.266664 model=1 Vminpu=0.5 Vmaxpu=1.5
New Load.226193899b0a Bus1=sx3082983b.1.0 phases=1 kV=0.069282 kW=8.666 kvar=2.1719 model=1 Vminpu=0.5 Vmaxpu=1.5
New Load.21389307c0b Bus1=sx2692655c.2.0 phases=1 kV=0.069282 kW=5.409 kvar=1.35562 model=1 Vminpu=0.5 Vmaxpu=1.5
New Load.21399762a0b Bus1=sx2879087a.2.0 phases=1 kV=0.069282 kW=4.06 kvar=1.01753 model=1 Vminpu=0.5 Vmaxpu=1.5
New Load.2001202c0a Bus1=sx2001202c.1.0 phases=1 kV=0.120089 kW=6.486 kvar=3.67579 model=1 Vminpu=0.5 Vmaxpu=1.5
New Load.157716b0b Bus1=sx3179674b.2.0 phases=1 kV=0.069282 kW=1.551 kvar=0.388717 model=1 Vminpu=0.5 Vmaxpu=1.5
New Load.21399762a0a Bus1=sx2879087a.1.0 phases=1 kV=0.069282 kW=1.26 kvar=0.315786 model=1 Vminpu=0.5 Vmaxpu=1.5
New Load.260630b0b Bus1=sx2973833b.2.0 phases=1 kV=0.069282 kW=2.641 kvar=0.661897 model=1 Vminpu=0.5 Vmaxpu=1.5
...